Version 4
SHEET 1 1668 680
WIRE 560 -240 416 -240
WIRE 80 -128 80 -144
WIRE 336 -128 336 -240
WIRE 336 -128 256 -128
WIRE 352 -128 336 -128
WIRE 560 -112 560 -240
WIRE 560 -112 416 -112
WIRE 80 -64 80 -128
WIRE 256 -64 256 -128
WIRE 352 0 352 -96
WIRE 80 48 80 16
WIRE 256 80 256 16
WIRE 80 96 80 48
WIRE 256 208 256 160
WIRE 80 272 80 176
FLAG 80 48 0
FLAG 80 -128 Vcc
FLAG 80 272 -Vcc
FLAG 384 -144 Vcc
FLAG 384 -80 -Vcc
FLAG 256 208 0
FLAG 352 0 0
FLAG 560 -112 Vout
SYMBOL voltage 80 -80 R0
WINDOW 123 0 0 Left 0
WINDOW 39 0 0 Left 0
SYMATTR InstName V1
SYMATTR Value 12
SYMBOL OpAmps\\opamp2 384 -176 R0
SYMATTR InstName U1
SYMATTR Value LM741/NS
SYMBOL voltage 80 80 R0
WINDOW 123 0 0 Left 0
WINDOW 39 0 0 Left 0
SYMATTR InstName V2
SYMATTR Value 12
SYMBOL voltage 256 64 R0
WINDOW 123 0 0 Left 0
WINDOW 39 0 0 Left 0
SYMATTR InstName V3
SYMATTR Value SINE(0 1 1k)
SYMBOL res 240 -80 R0
SYMATTR InstName R1
SYMATTR Value 2.2k
SYMBOL res 432 -256 R90
WINDOW 0 0 56 VBottom 2
WINDOW 3 32 56 VTop 2
SYMATTR InstName R2
SYMATTR Value 10k
TEXT -152 352 Left 2 !.include C:\\Users\\domin\\OneDrive - VietNam National University - HCM INTERNATIONAL UNIVERSITY\\Documents\\LM741.MOD
TEXT -152 376 Left 2 !.tran 5m
