Version 4
SHEET 1 988 680
WIRE -112 -128 -192 -128
WIRE -192 -64 -192 -128
WIRE -112 16 -112 -128
WIRE 208 16 64 16
WIRE -272 128 -272 112
WIRE -112 128 -112 96
WIRE -16 128 -16 16
WIRE -16 128 -112 128
WIRE 0 128 -16 128
WIRE 208 144 208 16
WIRE 208 144 64 144
WIRE 0 160 -112 160
WIRE -272 192 -272 128
WIRE -272 304 -272 272
WIRE -112 336 -112 160
WIRE -272 352 -272 304
WIRE -112 464 -112 416
WIRE -272 528 -272 432
FLAG -272 304 0
FLAG -272 128 Vcc
FLAG -272 528 -Vcc
FLAG 32 112 Vcc
FLAG 32 176 -Vcc
FLAG -112 464 0
FLAG -192 -64 0
FLAG 208 144 Vout
SYMBOL voltage -272 176 R0
WINDOW 123 0 0 Left 0
WINDOW 39 0 0 Left 0
SYMATTR InstName V1
SYMATTR Value 12
SYMBOL OpAmps\\opamp2 32 80 R0
SYMATTR InstName U1
SYMATTR Value LM741/NS
SYMBOL voltage -272 336 R0
WINDOW 123 0 0 Left 0
WINDOW 39 0 0 Left 0
SYMATTR InstName V2
SYMATTR Value 12
SYMBOL voltage -112 320 R0
WINDOW 123 0 0 Left 0
WINDOW 39 0 0 Left 0
SYMATTR InstName V3
SYMATTR Value SINE(0 1 1k)
SYMBOL res -128 0 R0
SYMATTR InstName R1
SYMATTR Value 2.2k
SYMBOL res 80 0 R90
WINDOW 0 0 56 VBottom 2
WINDOW 3 32 56 VTop 2
SYMATTR InstName R2
SYMATTR Value 100k
TEXT -504 608 Left 2 !.include C:\\Users\\domin\\OneDrive - VietNam National University - HCM INTERNATIONAL UNIVERSITY\\Documents\\LM741.MOD
TEXT -504 632 Left 2 !.tran 5m
