Version 4
SHEET 1 880 680
WIRE 112 80 0 80
WIRE 224 80 112 80
WIRE 336 80 224 80
WIRE 0 144 0 80
WIRE 112 144 112 80
WIRE 224 144 224 80
WIRE 336 144 336 80
WIRE 0 288 0 224
WIRE 112 288 112 224
WIRE 112 288 0 288
WIRE 224 288 224 224
WIRE 224 288 112 288
WIRE 336 288 336 224
WIRE 336 288 224 288
FLAG 224 288 0
SYMBOL res 96 128 R0
SYMATTR InstName R1
SYMATTR Value 8.2k
SYMBOL res 208 128 R0
SYMATTR InstName R2
SYMATTR Value 15k
SYMBOL res 320 128 R0
SYMATTR InstName R3
SYMATTR Value 39k
SYMBOL voltage 0 128 R0
WINDOW 123 0 0 Left 0
WINDOW 39 0 0 Left 0
SYMATTR InstName V1
SYMATTR Value 16
TEXT -32 304 Left 2 !.tran 50ms
