Version 4
SHEET 1 880 680
WIRE 80 80 0 80
WIRE 208 80 144 80
WIRE 0 128 0 80
WIRE 208 128 208 80
WIRE 0 256 0 208
WIRE 208 256 208 208
WIRE 208 256 0 256
FLAG 0 256 0
SYMBOL voltage 0 112 R0
WINDOW 123 0 0 Left 0
WINDOW 39 0 0 Left 0
SYMATTR InstName V1
SYMATTR Value SINE(0 2 750)
SYMBOL res 192 112 R0
SYMATTR InstName R1
SYMATTR Value 1k
SYMBOL cap 144 64 R90
WINDOW 0 0 32 VBottom 2
WINDOW 3 32 32 VTop 2
SYMATTR InstName C1
SYMATTR Value 0.1µ
TEXT -32 280 Left 2 !.tran 0 10m 0 1u
