Version 4
SHEET 1 880 680
WIRE -448 -96 -592 -96
WIRE -272 -96 -368 -96
WIRE -592 -48 -592 -96
WIRE -272 -48 -272 -96
WIRE -592 80 -592 32
WIRE -272 80 -272 32
WIRE -272 80 -592 80
WIRE -592 112 -592 80
FLAG -592 112 0
SYMBOL voltage -592 -64 R0
WINDOW 123 0 0 Left 0
WINDOW 39 0 0 Left 0
SYMATTR InstName V1
SYMATTR Value SINE(0 2 1000)
SYMBOL res -288 -64 R0
SYMATTR InstName R1
SYMATTR Value 1kR
SYMBOL ind -352 -112 R90
WINDOW 0 5 56 VBottom 2
WINDOW 3 32 56 VTop 2
SYMATTR InstName L1
SYMATTR Value 0.1µL
TEXT -624 136 Left 2 !.tran 1
